<?xml version="1.0" encoding="UTF-8"?>
<nodes>
    <node id="J00" x="0" y="0" type="traffic_light" tlType="actuated"/>
    <node id="J10" x="300" y="0" type="traffic_light" tlType="actuated"/>
    <node id="J01" x="0" y="300" type="traffic_light" tlType="actuated"/>
    <node id="J11" x="300" y="300" type="traffic_light" tlType="actuated"/>
    <node id="W00" x="-200" y="0" type="priority"/>
    <node id="S00" x="0" y="-200" type="priority"/>
    <node id="E10" x="500" y="0" type="priority"/>
    <node id="S10" x="300" y="-200" type="priority"/>
    <node id="W01" x="-200" y="300" type="priority"/>
    <node id="N01" x="0" y="500" type="priority"/>
    <node id="E11" x="500" y="300" type="priority"/>
    <node id="N11" x="300" y="500" type="priority"/>
</nodes>
