<?xml version="1.0" encoding="UTF-8"?>

<!-- generated on 2026-06-10T18:35:41.105827+05:30 by Eclipse SUMO netconvert 1.27.0
<netconvertConfiguration xmlns:xsi="http://www.w3.org/2001/XMLSchema-instance" xsi:noNamespaceSchemaLocation="http://sumo.dlr.de/xsd/netconvertConfiguration.xsd">

    <input>
        <node-files value="C:\Users\marsh\OneDrive\Desktop\code\smart-signal\scenarios\grid2x2\grid2x2.nod.xml"/>
        <edge-files value="C:\Users\marsh\OneDrive\Desktop\code\smart-signal\scenarios\grid2x2\grid2x2.edg.xml"/>
        <connection-files value="C:\Users\marsh\OneDrive\Desktop\code\smart-signal\scenarios\grid2x2\grid2x2.con.xml"/>
    </input>

    <output>
        <output-file value="C:\Users\marsh\OneDrive\Desktop\code\smart-signal\scenarios\grid2x2\grid2x2.net.xml"/>
    </output>

    <junctions>
        <no-turnarounds value="true"/>
    </junctions>

</netconvertConfiguration>
-->

<net version="1.20" junctionCornerDetail="5" limitTurnSpeed="5.50" xmlns:xsi="http://www.w3.org/2001/XMLSchema-instance" xsi:noNamespaceSchemaLocation="http://sumo.dlr.de/xsd/net_file.xsd">

    <location netOffset="200.00,200.00" convBoundary="0.00,0.00,700.00,700.00" origBoundary="-200.00,-200.00,500.00,500.00" projParameter="!"/>

    <edge id=":J00_0" function="internal">
        <lane id=":J00_0_0" index="0" speed="6.51" length="9.03" shape="192.00,213.60 191.65,211.15 190.60,209.40 188.85,208.35 186.40,208.00"/>
    </edge>
    <edge id=":J00_1" function="internal">
        <lane id=":J00_1_0" index="0" speed="13.89" length="27.20" shape="192.00,213.60 192.00,186.40"/>
        <lane id=":J00_1_1" index="1" speed="13.89" length="27.20" shape="195.20,213.60 195.20,186.40"/>
    </edge>
    <edge id=":J00_3" function="internal">
        <lane id=":J00_3_0" index="0" speed="10.36" length="12.07" shape="198.40,213.60 199.35,206.95 202.10,202.36"/>
    </edge>
    <edge id=":J00_16" function="internal">
        <lane id=":J00_16_0" index="0" speed="10.36" length="12.44" shape="202.10,202.36 202.20,202.20 206.95,199.35 213.60,198.40"/>
    </edge>
    <edge id=":J00_4" function="internal">
        <lane id=":J00_4_0" index="0" speed="6.51" length="9.03" shape="213.60,208.00 211.15,208.35 209.40,209.40 208.35,211.15 208.00,213.60"/>
    </edge>
    <edge id=":J00_5" function="internal">
        <lane id=":J00_5_0" index="0" speed="13.89" length="27.20" shape="213.60,208.00 186.40,208.00"/>
        <lane id=":J00_5_1" index="1" speed="13.89" length="27.20" shape="213.60,204.80 186.40,204.80"/>
    </edge>
    <edge id=":J00_7" function="internal">
        <lane id=":J00_7_0" index="0" speed="10.36" length="12.07" shape="213.60,201.60 206.95,200.65 202.36,197.90"/>
    </edge>
    <edge id=":J00_17" function="internal">
        <lane id=":J00_17_0" index="0" speed="10.36" length="12.44" shape="202.36,197.90 202.20,197.80 199.35,193.05 198.40,186.40"/>
    </edge>
    <edge id=":J00_8" function="internal">
        <lane id=":J00_8_0" index="0" speed="6.51" length="9.03" shape="208.00,186.40 208.35,188.85 209.40,190.60 211.15,191.65 213.60,192.00"/>
    </edge>
    <edge id=":J00_9" function="internal">
        <lane id=":J00_9_0" index="0" speed="13.89" length="27.20" shape="208.00,186.40 208.00,213.60"/>
        <lane id=":J00_9_1" index="1" speed="13.89" length="27.20" shape="204.80,186.40 204.80,213.60"/>
    </edge>
    <edge id=":J00_11" function="internal">
        <lane id=":J00_11_0" index="0" speed="10.36" length="12.07" shape="201.60,186.40 200.65,193.05 197.90,197.64"/>
    </edge>
    <edge id=":J00_18" function="internal">
        <lane id=":J00_18_0" index="0" speed="10.36" length="12.44" shape="197.90,197.64 197.80,197.80 193.05,200.65 186.40,201.60"/>
    </edge>
    <edge id=":J00_12" function="internal">
        <lane id=":J00_12_0" index="0" speed="6.51" length="9.03" shape="186.40,192.00 188.85,191.65 190.60,190.60 191.65,188.85 192.00,186.40"/>
    </edge>
    <edge id=":J00_13" function="internal">
        <lane id=":J00_13_0" index="0" speed="13.89" length="27.20" shape="186.40,192.00 213.60,192.00"/>
        <lane id=":J00_13_1" index="1" speed="13.89" length="27.20" shape="186.40,195.20 213.60,195.20"/>
    </edge>
    <edge id=":J00_15" function="internal">
        <lane id=":J00_15_0" index="0" speed="10.36" length="12.07" shape="186.40,198.40 193.05,199.35 197.64,202.10"/>
    </edge>
    <edge id=":J00_19" function="internal">
        <lane id=":J00_19_0" index="0" speed="10.36" length="12.44" shape="197.64,202.10 197.80,202.20 200.65,206.95 201.60,213.60"/>
    </edge>
    <edge id=":J01_0" function="internal">
        <lane id=":J01_0_0" index="0" speed="6.51" length="9.03" shape="192.00,513.60 191.65,511.15 190.60,509.40 188.85,508.35 186.40,508.00"/>
    </edge>
    <edge id=":J01_1" function="internal">
        <lane id=":J01_1_0" index="0" speed="13.89" length="27.20" shape="192.00,513.60 192.00,486.40"/>
        <lane id=":J01_1_1" index="1" speed="13.89" length="27.20" shape="195.20,513.60 195.20,486.40"/>
    </edge>
    <edge id=":J01_3" function="internal">
        <lane id=":J01_3_0" index="0" speed="10.36" length="12.07" shape="198.40,513.60 199.35,506.95 202.10,502.36"/>
    </edge>
    <edge id=":J01_16" function="internal">
        <lane id=":J01_16_0" index="0" speed="10.36" length="12.44" shape="202.10,502.36 202.20,502.20 206.95,499.35 213.60,498.40"/>
    </edge>
    <edge id=":J01_4" function="internal">
        <lane id=":J01_4_0" index="0" speed="6.51" length="9.03" shape="213.60,508.00 211.15,508.35 209.40,509.40 208.35,511.15 208.00,513.60"/>
    </edge>
    <edge id=":J01_5" function="internal">
        <lane id=":J01_5_0" index="0" speed="13.89" length="27.20" shape="213.60,508.00 186.40,508.00"/>
        <lane id=":J01_5_1" index="1" speed="13.89" length="27.20" shape="213.60,504.80 186.40,504.80"/>
    </edge>
    <edge id=":J01_7" function="internal">
        <lane id=":J01_7_0" index="0" speed="10.36" length="12.07" shape="213.60,501.60 206.95,500.65 202.36,497.90"/>
    </edge>
    <edge id=":J01_17" function="internal">
        <lane id=":J01_17_0" index="0" speed="10.36" length="12.44" shape="202.36,497.90 202.20,497.80 199.35,493.05 198.40,486.40"/>
    </edge>
    <edge id=":J01_8" function="internal">
        <lane id=":J01_8_0" index="0" speed="6.51" length="9.03" shape="208.00,486.40 208.35,488.85 209.40,490.60 211.15,491.65 213.60,492.00"/>
    </edge>
    <edge id=":J01_9" function="internal">
        <lane id=":J01_9_0" index="0" speed="13.89" length="27.20" shape="208.00,486.40 208.00,513.60"/>
        <lane id=":J01_9_1" index="1" speed="13.89" length="27.20" shape="204.80,486.40 204.80,513.60"/>
    </edge>
    <edge id=":J01_11" function="internal">
        <lane id=":J01_11_0" index="0" speed="10.36" length="12.07" shape="201.60,486.40 200.65,493.05 197.90,497.64"/>
    </edge>
    <edge id=":J01_18" function="internal">
        <lane id=":J01_18_0" index="0" speed="10.36" length="12.44" shape="197.90,497.64 197.80,497.80 193.05,500.65 186.40,501.60"/>
    </edge>
    <edge id=":J01_12" function="internal">
        <lane id=":J01_12_0" index="0" speed="6.51" length="9.03" shape="186.40,492.00 188.85,491.65 190.60,490.60 191.65,488.85 192.00,486.40"/>
    </edge>
    <edge id=":J01_13" function="internal">
        <lane id=":J01_13_0" index="0" speed="13.89" length="27.20" shape="186.40,492.00 213.60,492.00"/>
        <lane id=":J01_13_1" index="1" speed="13.89" length="27.20" shape="186.40,495.20 213.60,495.20"/>
    </edge>
    <edge id=":J01_15" function="internal">
        <lane id=":J01_15_0" index="0" speed="10.36" length="12.07" shape="186.40,498.40 193.05,499.35 197.64,502.10"/>
    </edge>
    <edge id=":J01_19" function="internal">
        <lane id=":J01_19_0" index="0" speed="10.36" length="12.44" shape="197.64,502.10 197.80,502.20 200.65,506.95 201.60,513.60"/>
    </edge>
    <edge id=":J10_0" function="internal">
        <lane id=":J10_0_0" index="0" speed="6.51" length="9.03" shape="492.00,213.60 491.65,211.15 490.60,209.40 488.85,208.35 486.40,208.00"/>
    </edge>
    <edge id=":J10_1" function="internal">
        <lane id=":J10_1_0" index="0" speed="13.89" length="27.20" shape="492.00,213.60 492.00,186.40"/>
        <lane id=":J10_1_1" index="1" speed="13.89" length="27.20" shape="495.20,213.60 495.20,186.40"/>
    </edge>
    <edge id=":J10_3" function="internal">
        <lane id=":J10_3_0" index="0" speed="10.36" length="12.07" shape="498.40,213.60 499.35,206.95 502.10,202.36"/>
    </edge>
    <edge id=":J10_16" function="internal">
        <lane id=":J10_16_0" index="0" speed="10.36" length="12.44" shape="502.10,202.36 502.20,202.20 506.95,199.35 513.60,198.40"/>
    </edge>
    <edge id=":J10_4" function="internal">
        <lane id=":J10_4_0" index="0" speed="6.51" length="9.03" shape="513.60,208.00 511.15,208.35 509.40,209.40 508.35,211.15 508.00,213.60"/>
    </edge>
    <edge id=":J10_5" function="internal">
        <lane id=":J10_5_0" index="0" speed="13.89" length="27.20" shape="513.60,208.00 486.40,208.00"/>
        <lane id=":J10_5_1" index="1" speed="13.89" length="27.20" shape="513.60,204.80 486.40,204.80"/>
    </edge>
    <edge id=":J10_7" function="internal">
        <lane id=":J10_7_0" index="0" speed="10.36" length="12.07" shape="513.60,201.60 506.95,200.65 502.36,197.90"/>
    </edge>
    <edge id=":J10_17" function="internal">
        <lane id=":J10_17_0" index="0" speed="10.36" length="12.44" shape="502.36,197.90 502.20,197.80 499.35,193.05 498.40,186.40"/>
    </edge>
    <edge id=":J10_8" function="internal">
        <lane id=":J10_8_0" index="0" speed="6.51" length="9.03" shape="508.00,186.40 508.35,188.85 509.40,190.60 511.15,191.65 513.60,192.00"/>
    </edge>
    <edge id=":J10_9" function="internal">
        <lane id=":J10_9_0" index="0" speed="13.89" length="27.20" shape="508.00,186.40 508.00,213.60"/>
        <lane id=":J10_9_1" index="1" speed="13.89" length="27.20" shape="504.80,186.40 504.80,213.60"/>
    </edge>
    <edge id=":J10_11" function="internal">
        <lane id=":J10_11_0" index="0" speed="10.36" length="12.07" shape="501.60,186.40 500.65,193.05 497.90,197.64"/>
    </edge>
    <edge id=":J10_18" function="internal">
        <lane id=":J10_18_0" index="0" speed="10.36" length="12.44" shape="497.90,197.64 497.80,197.80 493.05,200.65 486.40,201.60"/>
    </edge>
    <edge id=":J10_12" function="internal">
        <lane id=":J10_12_0" index="0" speed="6.51" length="9.03" shape="486.40,192.00 488.85,191.65 490.60,190.60 491.65,188.85 492.00,186.40"/>
    </edge>
    <edge id=":J10_13" function="internal">
        <lane id=":J10_13_0" index="0" speed="13.89" length="27.20" shape="486.40,192.00 513.60,192.00"/>
        <lane id=":J10_13_1" index="1" speed="13.89" length="27.20" shape="486.40,195.20 513.60,195.20"/>
    </edge>
    <edge id=":J10_15" function="internal">
        <lane id=":J10_15_0" index="0" speed="10.36" length="12.07" shape="486.40,198.40 493.05,199.35 497.64,202.10"/>
    </edge>
    <edge id=":J10_19" function="internal">
        <lane id=":J10_19_0" index="0" speed="10.36" length="12.44" shape="497.64,202.10 497.80,202.20 500.65,206.95 501.60,213.60"/>
    </edge>
    <edge id=":J11_0" function="internal">
        <lane id=":J11_0_0" index="0" speed="6.51" length="9.03" shape="492.00,513.60 491.65,511.15 490.60,509.40 488.85,508.35 486.40,508.00"/>
    </edge>
    <edge id=":J11_1" function="internal">
        <lane id=":J11_1_0" index="0" speed="13.89" length="27.20" shape="492.00,513.60 492.00,486.40"/>
        <lane id=":J11_1_1" index="1" speed="13.89" length="27.20" shape="495.20,513.60 495.20,486.40"/>
    </edge>
    <edge id=":J11_3" function="internal">
        <lane id=":J11_3_0" index="0" speed="10.36" length="12.07" shape="498.40,513.60 499.35,506.95 502.10,502.36"/>
    </edge>
    <edge id=":J11_16" function="internal">
        <lane id=":J11_16_0" index="0" speed="10.36" length="12.44" shape="502.10,502.36 502.20,502.20 506.95,499.35 513.60,498.40"/>
    </edge>
    <edge id=":J11_4" function="internal">
        <lane id=":J11_4_0" index="0" speed="6.51" length="9.03" shape="513.60,508.00 511.15,508.35 509.40,509.40 508.35,511.15 508.00,513.60"/>
    </edge>
    <edge id=":J11_5" function="internal">
        <lane id=":J11_5_0" index="0" speed="13.89" length="27.20" shape="513.60,508.00 486.40,508.00"/>
        <lane id=":J11_5_1" index="1" speed="13.89" length="27.20" shape="513.60,504.80 486.40,504.80"/>
    </edge>
    <edge id=":J11_7" function="internal">
        <lane id=":J11_7_0" index="0" speed="10.36" length="12.07" shape="513.60,501.60 506.95,500.65 502.36,497.90"/>
    </edge>
    <edge id=":J11_17" function="internal">
        <lane id=":J11_17_0" index="0" speed="10.36" length="12.44" shape="502.36,497.90 502.20,497.80 499.35,493.05 498.40,486.40"/>
    </edge>
    <edge id=":J11_8" function="internal">
        <lane id=":J11_8_0" index="0" speed="6.51" length="9.03" shape="508.00,486.40 508.35,488.85 509.40,490.60 511.15,491.65 513.60,492.00"/>
    </edge>
    <edge id=":J11_9" function="internal">
        <lane id=":J11_9_0" index="0" speed="13.89" length="27.20" shape="508.00,486.40 508.00,513.60"/>
        <lane id=":J11_9_1" index="1" speed="13.89" length="27.20" shape="504.80,486.40 504.80,513.60"/>
    </edge>
    <edge id=":J11_11" function="internal">
        <lane id=":J11_11_0" index="0" speed="10.36" length="12.07" shape="501.60,486.40 500.65,493.05 497.90,497.64"/>
    </edge>
    <edge id=":J11_18" function="internal">
        <lane id=":J11_18_0" index="0" speed="10.36" length="12.44" shape="497.90,497.64 497.80,497.80 493.05,500.65 486.40,501.60"/>
    </edge>
    <edge id=":J11_12" function="internal">
        <lane id=":J11_12_0" index="0" speed="6.51" length="9.03" shape="486.40,492.00 488.85,491.65 490.60,490.60 491.65,488.85 492.00,486.40"/>
    </edge>
    <edge id=":J11_13" function="internal">
        <lane id=":J11_13_0" index="0" speed="13.89" length="27.20" shape="486.40,492.00 513.60,492.00"/>
        <lane id=":J11_13_1" index="1" speed="13.89" length="27.20" shape="486.40,495.20 513.60,495.20"/>
    </edge>
    <edge id=":J11_15" function="internal">
        <lane id=":J11_15_0" index="0" speed="10.36" length="12.07" shape="486.40,498.40 493.05,499.35 497.64,502.10"/>
    </edge>
    <edge id=":J11_19" function="internal">
        <lane id=":J11_19_0" index="0" speed="10.36" length="12.44" shape="497.64,502.10 497.80,502.20 500.65,506.95 501.60,513.60"/>
    </edge>

    <edge id="E10__J10" from="E10" to="J10" priority="-1">
        <lane id="E10__J10_0" index="0" speed="13.89" length="186.40" shape="700.00,208.00 513.60,208.00"/>
        <lane id="E10__J10_1" index="1" speed="13.89" length="186.40" shape="700.00,204.80 513.60,204.80"/>
        <lane id="E10__J10_2" index="2" speed="13.89" length="186.40" shape="700.00,201.60 513.60,201.60"/>
    </edge>
    <edge id="E11__J11" from="E11" to="J11" priority="-1">
        <lane id="E11__J11_0" index="0" speed="13.89" length="186.40" shape="700.00,508.00 513.60,508.00"/>
        <lane id="E11__J11_1" index="1" speed="13.89" length="186.40" shape="700.00,504.80 513.60,504.80"/>
        <lane id="E11__J11_2" index="2" speed="13.89" length="186.40" shape="700.00,501.60 513.60,501.60"/>
    </edge>
    <edge id="J00__J01" from="J00" to="J01" priority="-1">
        <lane id="J00__J01_0" index="0" speed="13.89" length="272.80" shape="208.00,213.60 208.00,486.40"/>
        <lane id="J00__J01_1" index="1" speed="13.89" length="272.80" shape="204.80,213.60 204.80,486.40"/>
        <lane id="J00__J01_2" index="2" speed="13.89" length="272.80" shape="201.60,213.60 201.60,486.40"/>
    </edge>
    <edge id="J00__J10" from="J00" to="J10" priority="-1">
        <lane id="J00__J10_0" index="0" speed="13.89" length="272.80" shape="213.60,192.00 486.40,192.00"/>
        <lane id="J00__J10_1" index="1" speed="13.89" length="272.80" shape="213.60,195.20 486.40,195.20"/>
        <lane id="J00__J10_2" index="2" speed="13.89" length="272.80" shape="213.60,198.40 486.40,198.40"/>
    </edge>
    <edge id="J00__S00" from="J00" to="S00" priority="-1">
        <lane id="J00__S00_0" index="0" speed="13.89" length="186.40" shape="192.00,186.40 192.00,0.00"/>
        <lane id="J00__S00_1" index="1" speed="13.89" length="186.40" shape="195.20,186.40 195.20,0.00"/>
        <lane id="J00__S00_2" index="2" speed="13.89" length="186.40" shape="198.40,186.40 198.40,0.00"/>
    </edge>
    <edge id="J00__W00" from="J00" to="W00" priority="-1">
        <lane id="J00__W00_0" index="0" speed="13.89" length="186.40" shape="186.40,208.00 0.00,208.00"/>
        <lane id="J00__W00_1" index="1" speed="13.89" length="186.40" shape="186.40,204.80 0.00,204.80"/>
        <lane id="J00__W00_2" index="2" speed="13.89" length="186.40" shape="186.40,201.60 0.00,201.60"/>
    </edge>
    <edge id="J01__J00" from="J01" to="J00" priority="-1">
        <lane id="J01__J00_0" index="0" speed="13.89" length="272.80" shape="192.00,486.40 192.00,213.60"/>
        <lane id="J01__J00_1" index="1" speed="13.89" length="272.80" shape="195.20,486.40 195.20,213.60"/>
        <lane id="J01__J00_2" index="2" speed="13.89" length="272.80" shape="198.40,486.40 198.40,213.60"/>
    </edge>
    <edge id="J01__J11" from="J01" to="J11" priority="-1">
        <lane id="J01__J11_0" index="0" speed="13.89" length="272.80" shape="213.60,492.00 486.40,492.00"/>
        <lane id="J01__J11_1" index="1" speed="13.89" length="272.80" shape="213.60,495.20 486.40,495.20"/>
        <lane id="J01__J11_2" index="2" speed="13.89" length="272.80" shape="213.60,498.40 486.40,498.40"/>
    </edge>
    <edge id="J01__N01" from="J01" to="N01" priority="-1">
        <lane id="J01__N01_0" index="0" speed="13.89" length="186.40" shape="208.00,513.60 208.00,700.00"/>
        <lane id="J01__N01_1" index="1" speed="13.89" length="186.40" shape="204.80,513.60 204.80,700.00"/>
        <lane id="J01__N01_2" index="2" speed="13.89" length="186.40" shape="201.60,513.60 201.60,700.00"/>
    </edge>
    <edge id="J01__W01" from="J01" to="W01" priority="-1">
        <lane id="J01__W01_0" index="0" speed="13.89" length="186.40" shape="186.40,508.00 0.00,508.00"/>
        <lane id="J01__W01_1" index="1" speed="13.89" length="186.40" shape="186.40,504.80 0.00,504.80"/>
        <lane id="J01__W01_2" index="2" speed="13.89" length="186.40" shape="186.40,501.60 0.00,501.60"/>
    </edge>
    <edge id="J10__E10" from="J10" to="E10" priority="-1">
        <lane id="J10__E10_0" index="0" speed="13.89" length="186.40" shape="513.60,192.00 700.00,192.00"/>
        <lane id="J10__E10_1" index="1" speed="13.89" length="186.40" shape="513.60,195.20 700.00,195.20"/>
        <lane id="J10__E10_2" index="2" speed="13.89" length="186.40" shape="513.60,198.40 700.00,198.40"/>
    </edge>
    <edge id="J10__J00" from="J10" to="J00" priority="-1">
        <lane id="J10__J00_0" index="0" speed="13.89" length="272.80" shape="486.40,208.00 213.60,208.00"/>
        <lane id="J10__J00_1" index="1" speed="13.89" length="272.80" shape="486.40,204.80 213.60,204.80"/>
        <lane id="J10__J00_2" index="2" speed="13.89" length="272.80" shape="486.40,201.60 213.60,201.60"/>
    </edge>
    <edge id="J10__J11" from="J10" to="J11" priority="-1">
        <lane id="J10__J11_0" index="0" speed="13.89" length="272.80" shape="508.00,213.60 508.00,486.40"/>
        <lane id="J10__J11_1" index="1" speed="13.89" length="272.80" shape="504.80,213.60 504.80,486.40"/>
        <lane id="J10__J11_2" index="2" speed="13.89" length="272.80" shape="501.60,213.60 501.60,486.40"/>
    </edge>
    <edge id="J10__S10" from="J10" to="S10" priority="-1">
        <lane id="J10__S10_0" index="0" speed="13.89" length="186.40" shape="492.00,186.40 492.00,0.00"/>
        <lane id="J10__S10_1" index="1" speed="13.89" length="186.40" shape="495.20,186.40 495.20,0.00"/>
        <lane id="J10__S10_2" index="2" speed="13.89" length="186.40" shape="498.40,186.40 498.40,0.00"/>
    </edge>
    <edge id="J11__E11" from="J11" to="E11" priority="-1">
        <lane id="J11__E11_0" index="0" speed="13.89" length="186.40" shape="513.60,492.00 700.00,492.00"/>
        <lane id="J11__E11_1" index="1" speed="13.89" length="186.40" shape="513.60,495.20 700.00,495.20"/>
        <lane id="J11__E11_2" index="2" speed="13.89" length="186.40" shape="513.60,498.40 700.00,498.40"/>
    </edge>
    <edge id="J11__J01" from="J11" to="J01" priority="-1">
        <lane id="J11__J01_0" index="0" speed="13.89" length="272.80" shape="486.40,508.00 213.60,508.00"/>
        <lane id="J11__J01_1" index="1" speed="13.89" length="272.80" shape="486.40,504.80 213.60,504.80"/>
        <lane id="J11__J01_2" index="2" speed="13.89" length="272.80" shape="486.40,501.60 213.60,501.60"/>
    </edge>
    <edge id="J11__J10" from="J11" to="J10" priority="-1">
        <lane id="J11__J10_0" index="0" speed="13.89" length="272.80" shape="492.00,486.40 492.00,213.60"/>
        <lane id="J11__J10_1" index="1" speed="13.89" length="272.80" shape="495.20,486.40 495.20,213.60"/>
        <lane id="J11__J10_2" index="2" speed="13.89" length="272.80" shape="498.40,486.40 498.40,213.60"/>
    </edge>
    <edge id="J11__N11" from="J11" to="N11" priority="-1">
        <lane id="J11__N11_0" index="0" speed="13.89" length="186.40" shape="508.00,513.60 508.00,700.00"/>
        <lane id="J11__N11_1" index="1" speed="13.89" length="186.40" shape="504.80,513.60 504.80,700.00"/>
        <lane id="J11__N11_2" index="2" speed="13.89" length="186.40" shape="501.60,513.60 501.60,700.00"/>
    </edge>
    <edge id="N01__J01" from="N01" to="J01" priority="-1">
        <lane id="N01__J01_0" index="0" speed="13.89" length="186.40" shape="192.00,700.00 192.00,513.60"/>
        <lane id="N01__J01_1" index="1" speed="13.89" length="186.40" shape="195.20,700.00 195.20,513.60"/>
        <lane id="N01__J01_2" index="2" speed="13.89" length="186.40" shape="198.40,700.00 198.40,513.60"/>
    </edge>
    <edge id="N11__J11" from="N11" to="J11" priority="-1">
        <lane id="N11__J11_0" index="0" speed="13.89" length="186.40" shape="492.00,700.00 492.00,513.60"/>
        <lane id="N11__J11_1" index="1" speed="13.89" length="186.40" shape="495.20,700.00 495.20,513.60"/>
        <lane id="N11__J11_2" index="2" speed="13.89" length="186.40" shape="498.40,700.00 498.40,513.60"/>
    </edge>
    <edge id="S00__J00" from="S00" to="J00" priority="-1">
        <lane id="S00__J00_0" index="0" speed="13.89" length="186.40" shape="208.00,0.00 208.00,186.40"/>
        <lane id="S00__J00_1" index="1" speed="13.89" length="186.40" shape="204.80,0.00 204.80,186.40"/>
        <lane id="S00__J00_2" index="2" speed="13.89" length="186.40" shape="201.60,0.00 201.60,186.40"/>
    </edge>
    <edge id="S10__J10" from="S10" to="J10" priority="-1">
        <lane id="S10__J10_0" index="0" speed="13.89" length="186.40" shape="508.00,0.00 508.00,186.40"/>
        <lane id="S10__J10_1" index="1" speed="13.89" length="186.40" shape="504.80,0.00 504.80,186.40"/>
        <lane id="S10__J10_2" index="2" speed="13.89" length="186.40" shape="501.60,0.00 501.60,186.40"/>
    </edge>
    <edge id="W00__J00" from="W00" to="J00" priority="-1">
        <lane id="W00__J00_0" index="0" speed="13.89" length="186.40" shape="0.00,192.00 186.40,192.00"/>
        <lane id="W00__J00_1" index="1" speed="13.89" length="186.40" shape="0.00,195.20 186.40,195.20"/>
        <lane id="W00__J00_2" index="2" speed="13.89" length="186.40" shape="0.00,198.40 186.40,198.40"/>
    </edge>
    <edge id="W01__J01" from="W01" to="J01" priority="-1">
        <lane id="W01__J01_0" index="0" speed="13.89" length="186.40" shape="0.00,492.00 186.40,492.00"/>
        <lane id="W01__J01_1" index="1" speed="13.89" length="186.40" shape="0.00,495.20 186.40,495.20"/>
        <lane id="W01__J01_2" index="2" speed="13.89" length="186.40" shape="0.00,498.40 186.40,498.40"/>
    </edge>

    <tlLogic id="J00" type="actuated" programID="0" offset="0">
        <phase duration="33" state="GGGgrrrrGGGgrrrr" minDur="5" maxDur="50"/>
        <phase duration="3"  state="yyygrrrryyygrrrr"/>
        <phase duration="6"  state="rrrGrrrrrrrGrrrr" minDur="5" maxDur="50"/>
        <phase duration="3"  state="rrryrrrrrrryrrrr"/>
        <phase duration="33" state="rrrrGGGgrrrrGGGg" minDur="5" maxDur="50"/>
        <phase duration="3"  state="rrrryyygrrrryyyg"/>
        <phase duration="6"  state="rrrrrrrGrrrrrrrG" minDur="5" maxDur="50"/>
        <phase duration="3"  state="rrrrrrryrrrrrrry"/>
    </tlLogic>
    <tlLogic id="J01" type="actuated" programID="0" offset="0">
        <phase duration="33" state="GGGgrrrrGGGgrrrr" minDur="5" maxDur="50"/>
        <phase duration="3"  state="yyygrrrryyygrrrr"/>
        <phase duration="6"  state="rrrGrrrrrrrGrrrr" minDur="5" maxDur="50"/>
        <phase duration="3"  state="rrryrrrrrrryrrrr"/>
        <phase duration="33" state="rrrrGGGgrrrrGGGg" minDur="5" maxDur="50"/>
        <phase duration="3"  state="rrrryyygrrrryyyg"/>
        <phase duration="6"  state="rrrrrrrGrrrrrrrG" minDur="5" maxDur="50"/>
        <phase duration="3"  state="rrrrrrryrrrrrrry"/>
    </tlLogic>
    <tlLogic id="J10" type="actuated" programID="0" offset="0">
        <phase duration="33" state="GGGgrrrrGGGgrrrr" minDur="5" maxDur="50"/>
        <phase duration="3"  state="yyygrrrryyygrrrr"/>
        <phase duration="6"  state="rrrGrrrrrrrGrrrr" minDur="5" maxDur="50"/>
        <phase duration="3"  state="rrryrrrrrrryrrrr"/>
        <phase duration="33" state="rrrrGGGgrrrrGGGg" minDur="5" maxDur="50"/>
        <phase duration="3"  state="rrrryyygrrrryyyg"/>
        <phase duration="6"  state="rrrrrrrGrrrrrrrG" minDur="5" maxDur="50"/>
        <phase duration="3"  state="rrrrrrryrrrrrrry"/>
    </tlLogic>
    <tlLogic id="J11" type="actuated" programID="0" offset="0">
        <phase duration="33" state="GGGgrrrrGGGgrrrr" minDur="5" maxDur="50"/>
        <phase duration="3"  state="yyygrrrryyygrrrr"/>
        <phase duration="6"  state="rrrGrrrrrrrGrrrr" minDur="5" maxDur="50"/>
        <phase duration="3"  state="rrryrrrrrrryrrrr"/>
        <phase duration="33" state="rrrrGGGgrrrrGGGg" minDur="5" maxDur="50"/>
        <phase duration="3"  state="rrrryyygrrrryyyg"/>
        <phase duration="6"  state="rrrrrrrGrrrrrrrG" minDur="5" maxDur="50"/>
        <phase duration="3"  state="rrrrrrryrrrrrrry"/>
    </tlLogic>

    <junction id="E10" type="dead_end" x="700.00" y="200.00" incLanes="J10__E10_0 J10__E10_1 J10__E10_2" intLanes="" shape="700.00,200.00 700.00,190.40 700.00,200.00"/>
    <junction id="E11" type="dead_end" x="700.00" y="500.00" incLanes="J11__E11_0 J11__E11_1 J11__E11_2" intLanes="" shape="700.00,500.00 700.00,490.40 700.00,500.00"/>
    <junction id="J00" type="traffic_light" x="200.00" y="200.00" incLanes="J01__J00_0 J01__J00_1 J01__J00_2 J10__J00_0 J10__J00_1 J10__J00_2 S00__J00_0 S00__J00_1 S00__J00_2 W00__J00_0 W00__J00_1 W00__J00_2" intLanes=":J00_0_0 :J00_1_0 :J00_1_1 :J00_16_0 :J00_4_0 :J00_5_0 :J00_5_1 :J00_17_0 :J00_8_0 :J00_9_0 :J00_9_1 :J00_18_0 :J00_12_0 :J00_13_0 :J00_13_1 :J00_19_0" shape="190.40,213.60 209.60,213.60 210.04,211.38 210.60,210.60 211.38,210.04 212.38,209.71 213.60,209.60 213.60,190.40 211.38,189.96 210.60,189.40 210.04,188.62 209.71,187.62 209.60,186.40 190.40,186.40 189.96,188.62 189.40,189.40 188.62,189.96 187.62,190.29 186.40,190.40 186.40,209.60 188.62,210.04 189.40,210.60 189.96,211.38 190.29,212.38">
        <request index="0"  response="0000000000000000" foes="0000000001100000" cont="0"/>
        <request index="1"  response="1000000000000000" foes="1111100001100000" cont="0"/>
        <request index="2"  response="1000000000000000" foes="1111100001100000" cont="0"/>
        <request index="3"  response="1000011010000000" foes="1000011011100000" cont="1"/>
        <request index="4"  response="0000011000000000" foes="0000011000000000" cont="0"/>
        <request index="5"  response="0000011000001111" foes="1000011000001111" cont="0"/>
        <request index="6"  response="0000011000001111" foes="1000011000001111" cont="0"/>
        <request index="7"  response="0110111000001000" foes="0110111000001000" cont="1"/>
        <request index="8"  response="0000000000000000" foes="0110000000000000" cont="0"/>
        <request index="9"  response="0000000010000000" foes="0110000011111000" cont="0"/>
        <request index="10" response="0000000010000000" foes="0110000011111000" cont="0"/>
        <request index="11" response="1000000010000110" foes="1110000010000110" cont="1"/>
        <request index="12" response="0000000000000110" foes="0000000000000110" cont="0"/>
        <request index="13" response="0000111100000110" foes="0000111110000110" cont="0"/>
        <request index="14" response="0000111100000110" foes="0000111110000110" cont="0"/>
        <request index="15" response="0000100001101110" foes="0000100001101110" cont="1"/>
    </junction>
    <junction id="J01" type="traffic_light" x="200.00" y="500.00" incLanes="N01__J01_0 N01__J01_1 N01__J01_2 J11__J01_0 J11__J01_1 J11__J01_2 J00__J01_0 J00__J01_1 J00__J01_2 W01__J01_0 W01__J01_1 W01__J01_2" intLanes=":J01_0_0 :J01_1_0 :J01_1_1 :J01_16_0 :J01_4_0 :J01_5_0 :J01_5_1 :J01_17_0 :J01_8_0 :J01_9_0 :J01_9_1 :J01_18_0 :J01_12_0 :J01_13_0 :J01_13_1 :J01_19_0" shape="190.40,513.60 209.60,513.60 210.04,511.38 210.60,510.60 211.38,510.04 212.38,509.71 213.60,509.60 213.60,490.40 211.38,489.96 210.60,489.40 210.04,488.62 209.71,487.62 209.60,486.40 190.40,486.40 189.96,488.62 189.40,489.40 188.62,489.96 187.62,490.29 186.40,490.40 186.40,509.60 188.62,510.04 189.40,510.60 189.96,511.38 190.29,512.38">
        <request index="0"  response="0000000000000000" foes="0000000001100000" cont="0"/>
        <request index="1"  response="1000000000000000" foes="1111100001100000" cont="0"/>
        <request index="2"  response="1000000000000000" foes="1111100001100000" cont="0"/>