<?xml version="1.0" encoding="UTF-8"?>
<connections>
    <connection from="W00__J00" fromLane="0" to="J00__S00" toLane="0"/>
    <connection from="W00__J00" fromLane="0" to="J00__J10" toLane="0"/>
    <connection from="W00__J00" fromLane="1" to="J00__J10" toLane="1"/>
    <connection from="W00__J00" fromLane="2" to="J00__J01" toLane="2"/>
    <connection from="J10__J00" fromLane="0" to="J00__J01" toLane="0"/>
    <connection from="J10__J00" fromLane="0" to="J00__W00" toLane="0"/>
    <connection from="J10__J00" fromLane="1" to="J00__W00" toLane="1"/>
    <connection from="J10__J00" fromLane="2" to="J00__S00" toLane="2"/>
    <connection from="S00__J00" fromLane="0" to="J00__J10" toLane="0"/>
    <connection from="S00__J00" fromLane="0" to="J00__J01" toLane="0"/>
    <connection from="S00__J00" fromLane="1" to="J00__J01" toLane="1"/>
    <connection from="S00__J00" fromLane="2" to="J00__W00" toLane="2"/>
    <connection from="J01__J00" fromLane="0" to="J00__W00" toLane="0"/>
    <connection from="J01__J00" fromLane="0" to="J00__S00" toLane="0"/>
    <connection from="J01__J00" fromLane="1" to="J00__S00" toLane="1"/>
    <connection from="J01__J00" fromLane="2" to="J00__J10" toLane="2"/>
    <connection from="J00__J10" fromLane="0" to="J10__S10" toLane="0"/>
    <connection from="J00__J10" fromLane="0" to="J10__E10" toLane="0"/>
    <connection from="J00__J10" fromLane="1" to="J10__E10" toLane="1"/>
    <connection from="J00__J10" fromLane="2" to="J10__J11" toLane="2"/>
    <connection from="E10__J10" fromLane="0" to="J10__J11" toLane="0"/>
    <connection from="E10__J10" fromLane="0" to="J10__J00" toLane="0"/>
    <connection from="E10__J10" fromLane="1" to="J10__J00" toLane="1"/>
    <connection from="E10__J10" fromLane="2" to="J10__S10" toLane="2"/>
    <connection from="S10__J10" fromLane="0" to="J10__E10" toLane="0"/>
    <connection from="S10__J10" fromLane="0" to="J10__J11" toLane="0"/>
    <connection from="S10__J10" fromLane="1" to="J10__J11" toLane="1"/>
    <connection from="S10__J10" fromLane="2" to="J10__J00" toLane="2"/>
    <connection from="J11__J10" fromLane="0" to="J10__J00" toLane="0"/>
    <connection from="J11__J10" fromLane="0" to="J10__S10" toLane="0"/>
    <connection from="J11__J10" fromLane="1" to="J10__S10" toLane="1"/>
    <connection from="J11__J10" fromLane="2" to="J10__E10" toLane="2"/>
    <connection from="W01__J01" fromLane="0" to="J01__J00" toLane="0"/>
    <connection from="W01__J01" fromLane="0" to="J01__J11" toLane="0"/>
    <connection from="W01__J01" fromLane="1" to="J01__J11" toLane="1"/>
    <connection from="W01__J01" fromLane="2" to="J01__N01" toLane="2"/>
    <connection from="J11__J01" fromLane="0" to="J01__N01" toLane="0"/>
    <connection from="J11__J01" fromLane="0" to="J01__W01" toLane="0"/>
    <connection from="J11__J01" fromLane="1" to="J01__W01" toLane="1"/>
    <connection from="J11__J01" fromLane="2" to="J01__J00" toLane="2"/>
    <connection from="J00__J01" fromLane="0" to="J01__J11" toLane="0"/>
    <connection from="J00__J01" fromLane="0" to="J01__N01" toLane="0"/>
    <connection from="J00__J01" fromLane="1" to="J01__N01" toLane="1"/>
    <connection from="J00__J01" fromLane="2" to="J01__W01" toLane="2"/>
    <connection from="N01__J01" fromLane="0" to="J01__W01" toLane="0"/>
    <connection from="N01__J01" fromLane="0" to="J01__J00" toLane="0"/>
    <connection from="N01__J01" fromLane="1" to="J01__J00" toLane="1"/>
    <connection from="N01__J01" fromLane="2" to="J01__J11" toLane="2"/>
    <connection from="J01__J11" fromLane="0" to="J11__J10" toLane="0"/>
    <connection from="J01__J11" fromLane="0" to="J11__E11" toLane="0"/>
    <connection from="J01__J11" fromLane="1" to="J11__E11" toLane="1"/>
    <connection from="J01__J11" fromLane="2" to="J11__N11" toLane="2"/>
    <connection from="E11__J11" fromLane="0" to="J11__N11" toLane="0"/>
    <connection from="E11__J11" fromLane="0" to="J11__J01" toLane="0"/>
    <connection from="E11__J11" fromLane="1" to="J11__J01" toLane="1"/>
    <connection from="E11__J11" fromLane="2" to="J11__J10" toLane="2"/>
    <connection from="J10__J11" fromLane="0" to="J11__E11" toLane="0"/>
    <connection from="J10__J11" fromLane="0" to="J11__N11" toLane="0"/>
    <connection from="J10__J11" fromLane="1" to="J11__N11" toLane="1"/>
    <connection from="J10__J11" fromLane="2" to="J11__J01" toLane="2"/>
    <connection from="N11__J11" fromLane="0" to="J11__J01" toLane="0"/>
    <connection from="N11__J11" fromLane="0" to="J11__J10" toLane="0"/>
    <connection from="N11__J11" fromLane="1" to="J11__J10" toLane="1"/>
    <connection from="N11__J11" fromLane="2" to="J11__E11" toLane="2"/>
</connections>
