<?xml version="1.0" encoding="UTF-8"?>
<routes>
    <vType id="car" accel="2.6" decel="4.5" length="5.0" minGap="2.5" maxSpeed="16.67" sigma="0.5"/>
    <route id="N_straight" edges="N_in S_out"/>
    <route id="N_left" edges="N_in E_out"/>
    <route id="N_right" edges="N_in W_out"/>
    <route id="S_straight" edges="S_in N_out"/>
    <route id="S_left" edges="S_in W_out"/>
    <route id="S_right" edges="S_in E_out"/>
    <route id="E_straight" edges="E_in W_out"/>
    <route id="E_left" edges="E_in S_out"/>
    <route id="E_right" edges="E_in N_out"/>
    <route id="W_straight" edges="W_in E_out"/>
    <route id="W_left" edges="W_in N_out"/>
    <route id="W_right" edges="W_in S_out"/>
    <flow id="f0" route="N_left" begin="0" end="3600" vehsPerHour="33.00" type="car" departLane="best" departSpeed="max"/>
    <flow id="f1" route="N_straight" begin="0" end="3600" vehsPerHour="143.00" type="car" departLane="best" departSpeed="max"/>
    <flow id="f2" route="N_right" begin="0" end="3600" vehsPerHour="44.00" type="car" departLane="best" departSpeed="max"/>
    <flow id="f3" route="S_left" begin="0" end="3600" vehsPerHour="33.00" type="car" departLane="best" departSpeed="max"/>
    <flow id="f4" route="S_straight" begin="0" end="3600" vehsPerHour="143.00" type="car" departLane="best" departSpeed="max"/>
    <flow id="f5" route="S_right" begin="0" end="3600" vehsPerHour="44.00" type="car" departLane="best" departSpeed="max"/>
    <flow id="f6" route="E_left" begin="0" end="3600" vehsPerHour="33.00" type="car" departLane="best" departSpeed="max"/>
    <flow id="f7" route="E_straight" begin="0" end="3600" vehsPerHour="143.00" type="car" departLane="best" departSpeed="max"/>
    <flow id="f8" route="E_right" begin="0" end="3600" vehsPerHour="44.00" type="car" departLane="best" departSpeed="max"/>
    <flow id="f9" route="W_left" begin="0" end="3600" vehsPerHour="33.00" type="car" departLane="best" departSpeed="max"/>
    <flow id="f10" route="W_straight" begin="0" end="3600" vehsPerHour="143.00" type="car" departLane="best" departSpeed="max"/>
    <flow id="f11" route="W_right" begin="0" end="3600" vehsPerHour="44.00" type="car" departLane="best" departSpeed="max"/>
</routes>
